LAMMPS (2 Aug 2023)
# 2d LJ flow in a channel around an obstacle

# ---------------
# flow variables
# ---------------
variable push index 0.3
variable damp index 0.6
variable compress index 0.9
# ---------------
# settings
# ---------------

units           lj
dimension	2
boundary	p s p

atom_style	atomic
neighbor	0.3 bin
neigh_modify	delay 5

# ---------------
# create simulation box and atoms
# ---------------

lattice		hex 0.7
Lattice spacing in x,y,z = 1.2843567 2.2245711 1.2843567
region		box block 0 40 0 10 -0.25 0.25
create_box	3 box
Created orthogonal box = (0 0 -0.32108918) to (51.374269 22.245711 0.32108918)
create_atoms	1 box
Created 840 atoms

mass		* 1.0

# ---------------
# LJ potential
# ---------------

pair_style	lj/cut 1.12246
pair_coeff	* * 1.0 1.0 1.12246

# ---------------
# define groups
# ---------------

region	        1 block INF INF INF 1.25 INF INF
group		lower region 1
120 atoms in group lower
region		2 block INF INF 8.75 INF INF INF
group		upper region 2
120 atoms in group upper
group		boundary union lower upper
240 atoms in group boundary
group		flow subtract all boundary
600 atoms in group flow

set		group lower type 2
Setting atom values ...
  120 settings made for type
set		group upper type 3
Setting atom values ...
  120 settings made for type

# ---------------
# obstacle
# ---------------

region		void sphere 10 4 0 6.01
region		voidout sphere 10 4 0 6 side out

delete_atoms	region void
Deleted 127 atoms, new total = 713
fix             obstacle flow wall/region voidout harmonic 100 0 1.12246

# ---------------
# obstacle
# ---------------

region		void2 sphere 4  6 0 3.01
region		voidout2 sphere 4 6 0 3 side out

delete_atoms	region void2
Deleted 28 atoms, new total = 685
fix             obstacle2 flow wall/region voidout2 harmonic 100 0 1.12246

# ---------------
# initial velocities
# ---------------

velocity	boundary set 0.0 0.0 0.0
velocity	flow create 1.0 482748

# ---------------
# fixes for Poiseuille flow and viscous damping
# ---------------

fix		1 all nve
fix		2 lower setforce 0.0 0.0 0.0
fix		3 upper setforce 0.0 NULL 0.0

fix		4 upper aveforce 0.0 0.9 0.0
fix		5 flow addforce 0.3 0.0 0.0
fix             6 flow viscous 0.6

fix		7 all enforce2d

# ---------------
# output
# ---------------

compute         tflow flow temp

thermo		1000
thermo_modify	temp tflow

dump		1 all custom 500 dump.obstacle id type x y z vx

dump		2 all image 500 image.*.jpg type type 		zoom 1.6 adiam 1.5
dump_modify	2 pad 5

# command for Mac and Linux
dump            3 all movie 500 movie.mpg type type                 zoom 1.6 adiam 1.5

# command for Windows
#dump            3 all movie 500 movie.avi type type #                zoom 1.6 adiam 1.5

dump_modify	3 pad 5

# ---------------
# run
# ---------------

timestep	0.003
run		25000
Generated 0 of 3 mixed pair_coeff terms from geometric mixing rule
Step          Temp          E_pair         E_mol          TotEng         Press          Volume
0   1              0              0              0.65839416     0.39454609     1143.0857
Averages over the last 13 of 26 rows, steps 13000 to 25000:
Temp E_pair E_mol TotEng Press Volume
0.0794962 -0.590557 0 -0.538217 0.00503105 84050.7
Loop time of 2.75925 on 1 procs for 25000 steps with 685 atoms
